# File generated by Flopy version 3.3.5 on 05/18/2024 at 22:03:19.
BEGIN options
  LENGTH_UNITS  centimeters
END options

BEGIN dimensions
  NLAY  1
  NROW  1
  NCOL  120
END dimensions

BEGIN griddata
  delr
    CONSTANT       0.10000000
  delc
    CONSTANT       0.10000000
  top
    CONSTANT       1.00000000
  botm
    CONSTANT       0.00000000
END griddata

