# File generated by Flopy version 3.3.5 on 05/19/2024 at 16:09:07.
BEGIN options
  TIME_UNITS  seconds
END options

BEGIN dimensions
  NPER  1
END dimensions

BEGIN perioddata
     120.00000000  240       1.00000000
END perioddata

