# File generated by Flopy version 3.7.0 on 06/05/2024 at 13:24:46.
BEGIN options
  SAVE_FLOWS
END options

BEGIN packages
  WEL6  flow.wel  wel-1
  IC6  flow.ic  ic
  DIS6  flow.dis  dis
  CHD6  flow.chd  chd_0
  NPF6  flow.npf  npf
  OC6  flow.oc  oc
END packages

