# File generated by Flopy version 3.3.5 on 05/19/2024 at 16:09:07.
BEGIN options
END options

BEGIN dimensions
  MAXBOUND  1
END dimensions

BEGIN period  1
  1 1 120       1.00000000
END period  1

