# File generated by Flopy version 3.7.0 on 06/05/2024 at 13:24:46.
BEGIN options
END options

BEGIN dimensions
  MAXBOUND  1
END dimensions

BEGIN period  1
  1 1 120 1.00000000E+00
END period  1

