# File generated by Flopy version 3.7.0 on 06/05/2024 at 13:24:46.
BEGIN options
END options

