# File generated by Flopy version 3.3.5 on 05/18/2024 at 22:03:19.
BEGIN options
END options

