# File generated by Flopy version 3.3.5 on 05/18/2024 at 22:03:19.
BEGIN options
END options

BEGIN dimensions
  MAXBOUND  1
END dimensions

BEGIN period  1
  1 1 120       1.00000000
END period  1

