# File generated by Flopy version 3.3.5 on 05/19/2024 at 16:09:09.
BEGIN options
END options

BEGIN timing
  TDIS6  transport.tdis
END timing

BEGIN models
  gwt6  transport.nam  transport
END models

BEGIN exchanges
END exchanges

BEGIN solutiongroup  1
  ims6  transport.ims  transport
END solutiongroup  1

