# File generated by Flopy version 3.7.0 on 06/05/2024 at 13:24:49.
BEGIN options
END options

BEGIN timing
  TDIS6  transport.tdis
END timing

BEGIN models
  gwt6  transport.nam  transport
END models

BEGIN exchanges
END exchanges

BEGIN solutiongroup  1
  ims6  transport.ims  transport
END solutiongroup  1

