# File generated by Flopy version 3.3.5 on 05/19/2024 at 16:09:09.
BEGIN options
  XT3D_OFF
END options

BEGIN griddata
  alh
    CONSTANT       0.10000000
  ath1
    CONSTANT       0.10000000
END griddata

