# File generated by Flopy version 3.7.0 on 06/05/2024 at 13:24:49.
BEGIN options
END options

BEGIN packagedata
  GWFHEAD  FILEIN  flow.hds
  GWFBUDGET  FILEIN  flow.bud
END packagedata

