# File generated by Flopy version 3.7.0 on 06/05/2024 at 13:24:49.
BEGIN options
  BUDGET  FILEOUT  transport.bud
  CONCENTRATION  FILEOUT  transport.ucn
END options

BEGIN period  1
  SAVE  CONCENTRATION  ALL
  SAVE  BUDGET  LAST
  PRINT  CONCENTRATION  LAST
  PRINT  BUDGET  LAST
END period  1

