# File generated by Flopy version 3.3.5 on 05/18/2024 at 22:03:21.
BEGIN griddata
  strt
    CONSTANT       0.00000000
END griddata

