# File generated by Flopy version 3.7.0 on 06/05/2024 at 13:24:49.
BEGIN options
  XT3D_OFF
END options

BEGIN griddata
  alh
    CONSTANT       0.10000000
  ath1
    CONSTANT       0.10000000
END griddata

