# File generated by Flopy version 3.3.5 on 05/19/2024 at 16:09:09.
BEGIN options
END options

BEGIN packagedata
  GWFHEAD  FILEIN  flow.hds
  GWFBUDGET  FILEIN  flow.bud
END packagedata

