# File generated by Flopy version 3.3.5 on 05/18/2024 at 22:03:21.
BEGIN options
END options

BEGIN griddata
  porosity
    CONSTANT       0.10000000
END griddata

