# File generated by Flopy version 3.3.5 on 05/18/2024 at 22:03:21.
BEGIN options
  BUDGET  FILEOUT  transport.bud
  CONCENTRATION  FILEOUT  transport.ucn
END options

BEGIN period  1
  SAVE  CONCENTRATION  ALL
  SAVE  BUDGET  LAST
  PRINT  CONCENTRATION  LAST
  PRINT  BUDGET  LAST
END period  1

