# File generated by Flopy version 3.7.0 on 06/05/2024 at 13:24:49.
BEGIN options
  DIGITS  10
  PRINT_INPUT
END options

BEGIN continuous  FILEOUT  transporte.obs.csv
  X005  CONCENTRATION  1 1 1
  X405  CONCENTRATION  1 1 41
  X1105  CONCENTRATION  1 1 111
END continuous  FILEOUT  transporte.obs.csv

