# File generated by Flopy version 3.7.0 on 06/05/2024 at 13:24:49.
BEGIN options
  LENGTH_UNITS  centimeters
END options

BEGIN dimensions
  NLAY  1
  NROW  1
  NCOL  120
END dimensions

BEGIN griddata
  delr
    CONSTANT       0.10000000
  delc
    CONSTANT       0.10000000
  top
    CONSTANT       1.00000000
  botm
    CONSTANT       0.00000000
END griddata

