# File generated by Flopy version 3.3.5 on 05/18/2024 at 22:03:21.
BEGIN options
  SAVE_FLOWS
END options

BEGIN packages
  DIS6  .\transport.dis  dis
  IC6  .\transport.ic  ic
  MST6  .\transport.mst  mst
  ADV6  .\transport.adv  adv
  DSP6  .\transport.dsp  dsp
  FMI6  .\transport.fmi  fmi
  SSM6  .\transport.ssm  ssm
  OBS6  .\transport.obs  obs_0
  OC6  .\transport.oc  oc
END packages

