# File generated by Flopy version 3.6.0 on 04/15/2024 at 18:20:56.
BEGIN options
END options

BEGIN timing
  TDIS6  quick_start.tdis
END timing

BEGIN models
  gwf6  quick_start.nam  quick_start
END models

BEGIN exchanges
END exchanges

BEGIN solutiongroup  1
  ims6  quick_start.ims  quick_start
END solutiongroup  1

