# File generated by Flopy version 3.6.0 on 04/15/2024 at 18:20:57.
BEGIN options
  BUDGET  FILEOUT  quick_start.bud
  HEAD  FILEOUT  quick_start.hds
END options

BEGIN period  1
  SAVE  HEAD  ALL
  SAVE  BUDGET  ALL
END period  1

