# File generated by Flopy version 3.6.0 on 04/15/2024 at 18:20:56.
BEGIN griddata
  strt
    CONSTANT       1.00000000
END griddata

