# File generated by Flopy version 3.6.0 on 04/15/2024 at 18:20:56.
BEGIN options
END options

