# File generated by Flopy version 3.6.0 on 04/15/2024 at 18:20:56.
BEGIN options
END options

BEGIN dimensions
  NPER  1
END dimensions

BEGIN perioddata
       1.00000000  1       1.00000000
END perioddata

