# File generated by Flopy version 3.6.0 on 04/15/2024 at 18:20:56.
BEGIN options
END options

BEGIN dimensions
  MAXBOUND  3
END dimensions

BEGIN period  1
  1 1 1 1.00000000E+01
  1 10 10 2.50000000E+00
  1 20 20 0.00000000E+00
END period  1

