# File generated by Flopy version 3.6.0 on 04/15/2024 at 18:20:56.
BEGIN options
END options

BEGIN dimensions
  NLAY  1
  NROW  20
  NCOL  20
END dimensions

BEGIN griddata
  delr
    CONSTANT       1.00000000
  delc
    CONSTANT       1.00000000
  top
    CONSTANT       1.00000000
  botm
    CONSTANT       0.00000000
END griddata

