# File generated by Flopy version 3.6.0 on 04/15/2024 at 18:20:56.
BEGIN options
  SAVE_FLOWS
END options

BEGIN packages
  DIS6  quick_start.dis  dis
  IC6  quick_start.ic  ic
  NPF6  quick_start.npf  npf
  CHD6  quick_start.chd  chd_0
  OC6  quick_start.oc  oc
END packages

