# File generated by Flopy version 3.3.5 on 04/28/2024 at 15:01:58.
BEGIN options
END options

BEGIN timing
  TDIS6  model.tdis
END timing

BEGIN models
  gwf6  model.nam  model
END models

BEGIN exchanges
END exchanges

BEGIN solutiongroup  1
  ims6  model.ims  model
END solutiongroup  1

