# File generated by Flopy version 3.3.5 on 04/28/2024 at 15:01:58.
BEGIN options
END options

BEGIN dimensions
  MAXBOUND  1
END dimensions

BEGIN period  1
  1 1 122       1.00000000
END period  1

