# File generated by Flopy version 3.3.5 on 04/28/2024 at 15:01:58.
BEGIN options
  TIME_UNITS  seconds
END options

BEGIN dimensions
  NPER  1
END dimensions

BEGIN perioddata
     120.00000000  1       1.00000000
END perioddata

