# File generated by Flopy version 3.3.5 on 04/28/2024 at 15:01:58.
BEGIN options
  SAVE_FLOWS
END options

BEGIN packages
  DIS6  .\model.dis  dis
  IC6  .\model.ic  ic
  NPF6  .\model.npf  npf
  CHD6  .\model.chd  chd_0
  WEL6  .\model.wel  wel-1
  OC6  .\model.oc  oc
END packages

