# File generated by Flopy version 3.3.5 on 04/28/2024 at 15:01:58.
BEGIN options
END options

