# File generated by Flopy version 3.3.5 on 04/28/2024 at 15:01:58.
BEGIN options
  BUDGET  FILEOUT  model.bud
  HEAD  FILEOUT  model.hds
END options

BEGIN period  1
  SAVE  HEAD  ALL
  SAVE  BUDGET  ALL
END period  1

