# File generated by Flopy version 3.3.5 on 04/28/2024 at 15:01:58.
BEGIN options
  SAVE_SPECIFIC_DISCHARGE
  SAVE_SATURATION
END options

BEGIN griddata
  icelltype
    CONSTANT  0
  k
    CONSTANT       0.01000000
END griddata

