# File generated by Flopy version 3.3.5 on 05/03/2024 at 09:20:54.
BEGIN options
  SAVE_FLOWS
END options

BEGIN packages
  DIS6  .\flow.dis  dis
  IC6  .\flow.ic  ic
  NPF6  .\flow.npf  npf
  CHD6  .\flow.chd  chd_0
  WEL6  .\flow.wel  wel-1
  OC6  .\flow.oc  oc
END packages

