# File generated by Flopy version 3.3.5 on 05/03/2024 at 09:20:54.
BEGIN options
  TIME_UNITS  seconds
END options

BEGIN dimensions
  NPER  1
END dimensions

BEGIN perioddata
     120.00000000  1       1.00000000
END perioddata

