# File generated by Flopy version 3.3.5 on 05/03/2024 at 09:20:54.
BEGIN options
END options

