# File generated by Flopy version 3.3.5 on 05/03/2024 at 09:20:54.
BEGIN griddata
  strt
    CONSTANT       1.00000000
END griddata

